<?xml version="1.0" encoding="UTF-8"?>

<!-- generated on 09/03/19 14:29:26 by Eclipse SUMO duarouter Version 1.2.0
<configuration xmlns:xsi="http://www.w3.org/2001/XMLSchema-instance" xsi:noNamespaceSchemaLocation="http://sumo.dlr.de/xsd/duarouterConfiguration.xsd">

    <input>
        <net-file value="steglitz.net.xml"/>
        <route-files value="duarouter_config.xml"/>
    </input>

    <output>
        <output-file value="steglitz.rou.xml"/>
        <alternatives-output value="steglitz.rou.alt.xml"/>
    </output>

</configuration>
-->

<routes xmlns:xsi="http://www.w3.org/2001/XMLSchema-instance" xsi:noNamespaceSchemaLocation="http://sumo.dlr.de/xsd/routes_file.xsd">
    <vehicle id="1" depart="0.00">
        <route edges="30157290_26906639_3956502021_3496881187 30157290_26906639_3956502021_609888781 469999017_3956502021_3956502022_3956502021 469999008_3956502022_3956502024_3956502022 469999008_3956502022_3956502024_3496881774 451621864_3956502024_26729654_3956502024 451621864_3956502024_26729654_638499620 451621864_3956502024_26729654_3528153828 451621864_3956502024_26729654_6235320875 451621864_3956502024_26729654_6235320877 4463223_26729654_26906847_26729654 4693138_26906847_26729624_26906847 148808620_26729624_26917671_26729624 148808620_26729624_26917671_6235320878 148808620_26729624_26917671_1618792965 225442114_26917671_1583966091_26917671 225442114_26917671_1583966091_371216367 318138829_1583966091_3245168702_1583966091 318138830_3245168702_1560557449_3245168702 318138831_1560557449_3245168703_1560557449 318138834_3245168703_3370805367_3245168703 330119108_3370805367_26848789_3370805367 330119108_3370805367_26848789_3955490012 377968517_26848789_3813750936_26848789 318138835_3813750936_26848742_3813750936 318138835_26848742_26848737_26848742 318138835_26848737_26848728_26848737 318138835_26848737_26848728_6043250758 318138835_26848737_26848728_6043250753 318138835_26848737_26848728_766746960 318138835_26848728_3573516691_26848728 318138835_3573516691_30320243_3573516691 318138835_30320243_26848757_30320243 318138835_26848757_26848723_26848757 318138835_26848757_26848723_3244031761 318138835_26848723_3245168704_26848723 4475167_3245168704_26583824_3245168704 318138838_26583824_1154118695_26583824 172382664_1154118695_26848713_1154118695"/>
    </vehicle>
    <vehicle id="2" depart="0.00">
        <route edges="30157290_26906639_3956502021_3496881187 30157290_26906639_3956502021_609888781 469999017_3956502021_3956502022_3956502021 469999008_3956502022_3956502024_3956502022 469999008_3956502022_3956502024_3496881774 451621864_3956502024_26729654_3956502024 451621864_3956502024_26729654_638499620 451621864_3956502024_26729654_3528153828 451621864_3956502024_26729654_6235320875 451621864_3956502024_26729654_6235320877 4463223_26729654_26906847_26729654 4693138_26906847_26729624_26906847 148808620_26729624_26917671_26729624 148808620_26729624_26917671_6235320878 148808620_26729624_26917671_1618792965 225442114_26917671_1583966091_26917671 225442114_26917671_1583966091_371216367 318138829_1583966091_3245168702_1583966091 318138830_3245168702_1560557449_3245168702 318138831_1560557449_3245168703_1560557449 318138834_3245168703_3370805367_3245168703 330119108_3370805367_26848789_3370805367 330119108_3370805367_26848789_3955490012 225442115_26848789_3370805368_26848789 225442115_26848789_3370805368_3955490013 330119109_3370805368_2297930735_3370805368 330119110_2297930735_1560557456_2297930735 330119110_1560557456_26729627_1560557456 330119110_1560557456_26729627_2297930738 101290092_26729627_26848785_26729627 101290092_26729627_26848785_2588351500 101290092_26729627_26848785_2588351530 101290092_26848785_26729627_26848785 101290092_26848785_26729627_2588351530 101290092_26848785_26729627_2588351500 330119110_26729627_1560557456_26729627 330119110_26729627_1560557456_2297930738 330119110_1560557456_2297930735_1560557456 330119109_2297930735_3370805368_2297930735 225442115_3370805368_26848789_3370805368 225442115_3370805368_26848789_3955490013 377968517_26848789_3813750936_26848789 318138835_3813750936_26848742_3813750936 318138835_26848742_26848737_26848742 318138835_26848737_26848728_26848737 318138835_26848737_26848728_6043250758 318138835_26848737_26848728_6043250753 318138835_26848737_26848728_766746960 318138835_26848728_3573516691_26848728 318138835_3573516691_30320243_3573516691 318138835_30320243_26848757_30320243 318138835_26848757_26848723_26848757 318138835_26848757_26848723_3244031761 318138835_26848723_3245168704_26848723 4475167_3245168704_26583824_3245168704 318138838_26583824_1154118695_26583824 172382664_1154118695_26848713_1154118695"/>
    </vehicle>
</routes>
